Circuit: * C:\Users\Carlos\Desktop\ITBA\3er año\1er cuatri\E1\Electronica_1\TP1\Simulaciones\Simulacion_Darlington.asc

WARNING: Node NC_01 is floating.

WARNING: Less than two connections to node NC_01.  This node is used by C2.
Direct Newton iteration for .op point succeeded.

Date: Mon Sep 23 23:18:00 2019
Total elapsed time: 0.104 seconds.

tnom = 27
temp = 27
method = trap
totiter = 8
traniter = 0
tranpoints = 0
accept = 0
rejected = 0
matrix size = 18
fillins = 2
solver = Normal
Matrix Compiler1:      69 opcodes
Matrix Compiler2: 1.44 KB object code size
